/*--------------------------------*- C++ -*----------------------------------*\
| =========                 |                                                |
| \\      /  F ield         | cfMesh: A library for mesh generation          | 
|  \\    /   O peration     |                                                |
|   \\  /    A nd           | Author: Franjo Juretic                         | 
|    \\/     M anipulation  | E-mail: franjo.juretic@c-fields.com            |
\*---------------------------------------------------------------------------*/

FoamFile
{
    version   2.0;
    format    ascii;
    class     dictionary;
    location  "system";
    object    meshDict;
}

// * * * * * * * * * * * * * * * * * * * * * * * * * * * * * * * * * * * * * //


surfaceFile "ADDFINALwithbox.fms";
maxCellSize 0.1;
//boundaryCellSize 0.3;
keepCellsIntersectingBoundary 0;

objectRefinements
{
/*    mainBox
    {
        type box;
        cellSize   0.01; //[m]
        centre    (1.75 0 0); //[m]
        lengthX      4; //[m]
        lengthY      2; //[m]
        lengthZ      2.5; //[m]
    }*/	   	
}

localRefinement
{

    solid
    {
        cellSize 0.0005;
        //refinementThickness  0.01;//[m]
    }

}


/*
boundaryLayers
{	

    patchBoundaryLayers
    {
        solid
        {
             nLayers    5;
             thicknessRatio     1.3;
             maxFirstLayerThickness 0.005;
             allowDiscontinuity 0;
        }
    }


    optimiseLayer 1;

    optimisationParameters
    {
        nSmoothNormals                  3;
        relThicknessTol 		0.1;
        featureSizeFactor 		0.3;
        reCalculateNormals 		1; 
        maxNumIterations 		5;
    }


   
}*/


renameBoundary
{
	newPatchNames
	{
		"xMin"
		{
			newName inlet;
			type patch;
		}
	 	"xMax"	
		{
			newName outlet;
			type patch;
		}
	 	"yMin"	
		{
			newName lowerWall;
			type wall;
		}
	    	"yMax"	
		{
			newName upperWall;
			type wall;
		}
	  	"zMin"
		{
			newName back;
			type wall;
		}
		"zMax"	
		{
			newName front;
			type wall;
		}
		"Body"
		{
			newName Body;
			type wall;
		}
		"tyreFL"
		{
			newName tyreFL;
			type wall;
		}    
		"tyreFR"
		{
			newName tyreFR;
			type wall;
		}
		"tyreRL"
		{
			newName tyreRL;
			type wall;
		}
		"tyreRR"
		{
			newName tyreRR;
			type wall;
		} 
	}
}




// ************************************************************************* //
