/*--------------------------------*- C++ -*----------------------------------*\
  =========                 |
  \\      /  F ield         | OpenFOAM: The Open Source CFD Toolbox
   \\    /   O peration     | Website:  https://openfoam.org
    \\  /    A nd           | Version:  10
     \\/     M anipulation  |
\*---------------------------------------------------------------------------*/
FoamFile
{
    format      ascii;
    class       volVectorField;
    location    "0";
    object      U;
}
// * * * * * * * * * * * * * * * * * * * * * * * * * * * * * * * * * * * * * //

#include        "include/initialConditions"

dimensions      [0 1 -1 0 0 0 0];

internalField   uniform $flowVelocity;

boundaryField
{
    //- Set patchGroups for constraint patches
    #includeEtc "caseDicts/setConstraintTypes"

    #include "include/fixedInlet"

    outlet
    {
        type            inletOutlet;
        inletValue      uniform (0 0 0);
        value           $internalField;
    }

    lowerWall
    {
        type            fixedValue;
        value           $internalField;
    }

    Body
    {
        type            noSlip;
    }
    
    tyreFL
    {
        type            noSlip;	
    }
    tyreFR
    {
        type            noSlip;	
    }    
    tyreRL
    {
        type            noSlip;	
    }    
    tyreRR
    {
        type            noSlip;
    }    
       
        //type            rotatingWallVelocity;
        //origin		(0.65 0.15 0.4)
        //axis		(0 0 1)
        //omega   
    
    #include "include/frontBackUpperPatches"
}


// ************************************************************************* //
