/*--------------------------------*- C++ -*----------------------------------*\
  =========                 |
  \\      /  F ield         | OpenFOAM: The Open Source CFD Toolbox
   \\    /   O peration     | Website:  https://openfoam.org
    \\  /    A nd           | Version:  10
     \\/     M anipulation  |
\*---------------------------------------------------------------------------*/
FoamFile
{
    format      ascii;
    class       volVectorField;
    location    "0";
    object      U;
}
// * * * * * * * * * * * * * * * * * * * * * * * * * * * * * * * * * * * * * //

#include        "include/initialConditions"

dimensions      [0 1 -1 0 0 0 0];

internalField   uniform $flowVelocity;

boundaryField
{
    //- Set patchGroups for constraint patches
    #includeEtc "caseDicts/setConstraintTypes"

    #include "include/fixedInlet"

    outlet
    {
        type            inletOutlet;
        inletValue      uniform (0 0 0);
        value           $internalField;
    }

    lowerWall
    {
        type            slip;
        value           uniform (30 0 0);
    }

    carBody
    {
        type            noSlip;
    }   
    tyreFL
    {
        type            rotatingWallVelocity;
        origin	        (0.65 0.145 0.4);
        axis		(0 0 1);
        omega		200;
    }
    tyreFR
    {
        type            rotatingWallVelocity;
        origin	        (0.65 0.145 -0.4);
        axis		(0 0 1);
        omega	        200;
    }    
    tyreRL
    {
        type            rotatingWallVelocity;
        origin	        (2.6 0.195 0.4);
        axis		(0 0 1);
        omega		150;
    }    
    tyreRR
    {
        type            rotatingWallVelocity;
        origin	        (2.6 0.195 -0.4);
        axis		(0 0 1);
        omega	        150;
    }    
	      
    #include "include/frontBackUpperPatches"
}


// ************************************************************************* //
